    20
Energy =
C    31.1614400  -13.6149562   -0.0005130 
N    32.2984881   -7.1369913   -0.0010009 
C    33.4355904   -7.8364643   -0.0005127 
C    33.4903088   -9.2320723    0.0004090 
C    31.1067208  -12.2193483    0.0004090 
C    32.2985203  -11.4718113    0.0005615 
C    33.4903314  -12.2193296    0.0004057 
C    33.4356343  -13.6149384   -0.0005174 
N    32.2985427  -14.3144287   -0.0009995 
C    32.2985090   -9.9796087    0.0005622 
C    31.1066982   -9.2320898    0.0004074 
C    31.1613961   -7.8364811   -0.0005184 
H    34.4670079   -9.7172293    0.0012411 
H    34.3673842   -7.2578419   -0.0009058 
H    30.1300062   -9.7172613    0.0012448 
H    30.2295938   -7.2578725   -0.0009244 
H    30.1300215  -11.7341916    0.0012426 
H    30.2296465  -14.1935790   -0.0009099 
H    34.4670232  -11.7341578    0.0012384 
H    34.3674369  -14.1935466   -0.0009201 
