  20
Energy =
C    19.0259484   17.9918555    3.7139900
C    19.0259288   17.9918555    5.2809036
H    18.0283982   17.7521954    3.3089511
H    18.0283520   17.7522530    5.6859129
N    19.4219342   19.3163215    5.7733349
N    19.4219114   19.3163320    3.2215581
H    19.7287672   17.2443123    3.3095897
H    19.7286956   17.2442783    5.6853296
C    18.4729390   20.3213771    5.2808595
C    20.7669009   19.6359617    5.2808810
C    18.4729530   20.3214084    3.7140603
C    20.7668872   19.6359848    3.7139847
H    18.7645722   21.3050905    5.6857026
H    17.4739090   20.0867104    5.6854369
H    21.4734031   18.8919121    5.6853648
H    21.0627210   20.6182900    5.6859128
H    18.7646640   21.3051203    3.3092712
H    17.4739161   20.0868308    3.3094464
H    21.4733963   18.8919648    3.3094618
H    21.0626726   20.6183355    3.3089777
