98
Energy =
C     6.0521460   -0.4830040   -1.3816342
C     6.8149048    0.3075223   -0.4708489
C     6.1655683    1.3033192    0.3233983
C     4.7837211    1.4859761    0.1731296
C     4.0275358    0.7449882   -0.7353508
C     4.6732702   -0.2361551   -1.4888148
C     8.3054780    0.1124432   -0.3728412
C     8.8543242   -0.8241313    0.5372855
C    10.3008422   -1.0158116    0.6085263
C    11.1616335   -0.2462956   -0.2136348
C    10.6108140    0.6675370   -1.1476114
C     9.1652358    0.8560775   -1.2220342
C    10.8081069   -1.9858334    1.5137977
C     9.9853820   -2.7444774    2.3402219
C     8.5477216   -2.5399225    2.2848391
C     8.0319753   -1.6009442    1.3979606
C    10.5051300   -3.7243585    3.2556520
C     9.6674693   -4.4478213    4.0605171
C     8.2478486   -4.2437744    4.0082501
C     7.7080788   -3.3233035    3.1514086
C    11.4341320    1.4063755   -2.0389508
C    10.9173847    2.3068674   -2.9652377
C     9.4799712    2.5073774   -3.0274821
C     8.6581855    1.7855025   -2.1669536
C    11.7551875    3.0531253   -3.8651291
C    11.2134616    3.9359496   -4.7598937
C     9.7938967    4.1359480   -4.8194014
C     8.9579378    3.4461713   -3.9834372
C    12.6500939   -0.4696700   -0.1560553
C    13.2105546   -1.4587226   -1.0131625
C    14.5881413   -1.7023702   -0.9747259
C    15.4249727   -1.0101695   -0.0989431
C    14.8653924   -0.0293138    0.7264480
C    13.4930072    0.2676826    0.7245930
C    16.8933718   -1.3339566   -0.1165842
O    17.4315223   -1.9119628   -1.0241996
C     2.5524555    1.0222784   -0.8258621
O     1.9258104    0.5855986   -1.9437613
O     1.9357762    1.6025186    0.0285939
O    17.6088405   -0.9457631    0.9650364
H    12.5647725    3.5189143    1.6785081
H     7.5990490   -4.8330294    4.6616203
H     6.6263531   -3.1675197    3.1104617
H    10.0753931   -5.1894182    4.7524169
H     6.9513864   -1.4552722    1.3619534
H    11.8871806   -2.1388996    1.5670980
H     7.5795131    1.9390573   -2.2250943
H    12.5152561    1.2660826   -1.9928526
H     7.8757970    3.5978331   -4.0281356
H     9.3843428    4.8471120   -5.5416264
H    11.9661514    1.8204277    3.4986627
H    15.0435815   -2.4478190   -1.6295436
H    11.0127377    0.8993247    2.3195400
H    15.5079816    0.5657753    1.3837803
C     6.5497424   -1.6613963   -2.2458175
C     6.8126520    2.2012712    1.3976438
C    13.0613204    1.4003385    1.6734735
H    11.5870461   -3.8790191    3.2950894
H    11.8610748    4.4977479   -5.4381633
H     4.0989134   -0.8703963   -2.1720493
H    17.0179748   -0.6184398    1.6576756
H     2.5731541    0.2627872   -2.5862402
H    12.2852223    0.0867295    3.2580889
H    13.4296348    2.9990741    0.2116614
H     4.2620984    2.2338985    0.7738025
C     7.8285930   -1.4708381   -3.0765823
C     6.6047338   -2.9825883   -1.4528825
H     5.7444534   -1.7958751   -2.9878875
H     7.4318440   -2.9920879   -0.7282319
H     5.6684671   -3.1619665   -0.9004615
H     6.7562496   -3.8286999   -2.1433740
H     8.7415330   -1.5135205   -2.4669745
H     7.8938433   -2.2833469   -3.8190481
H     7.8302109   -0.5166598   -3.6234453
C     8.0166346    3.0579568    0.9719406
H     6.0163963    2.9238153    1.6391490
C     7.1041162    1.4554647    2.7139698
H     7.8404189    3.5710789    0.0142984
H     8.1940125    3.8311608    1.7374523
H     8.9420091    2.4737428    0.8768294
H     7.9530935    0.7637674    2.6188765
H     7.3522474    2.1813108    3.5059234
H     6.2296842    0.8772304    3.0526785
C    12.0196475    1.0215581    2.7405640
H    13.9800961    1.6419340    2.2347993
C    12.6666979    2.6997522    0.9474845
H    11.7071987    2.6047768    0.4199950
H    12.8371520    2.9003043   -3.8187987
C    12.3623174   -2.2797604   -1.9873303
C    12.7870476   -2.0490314   -3.4492102
C    12.3816852   -3.7784643   -1.6339937
H    11.3207403   -1.9403343   -1.8965095
H    13.8154825   -2.3988902   -3.6374888
H    12.1204992   -2.6001017   -4.1327951
H    12.7391656   -0.9825505   -3.7185608
H    13.3940762   -4.2056445   -1.7267713
H    12.0340670   -3.9547669   -0.6040652
H    11.7211741   -4.3417881   -2.3136115
