   62
Energy =
C     6.1492123   -0.3577614   -1.6005585
C     6.9084129    0.3393875   -0.6455281
C     6.2301187    1.1254955    0.3044144
C     4.8390907    1.2127887    0.2990662
C     4.0854737    0.5300844   -0.6684393
C     4.7559278   -0.2644780   -1.6119511
C     8.4021353    0.2377163   -0.6332280
C     9.0376110   -0.6740727    0.2457608
C    10.4945182   -0.7758301    0.2572242
C    11.2641496    0.0387914   -0.6097473
C    10.6286965    0.9508717   -1.4884450
C     9.1717894    1.0526260   -1.4999126
C    11.0983286   -1.7089526    1.1412490
C    10.3555436   -2.5188232    1.9953873
C     8.9061497   -2.4162593    1.9852597
C     8.2962690   -1.5121568    1.1206742
C    10.9708225   -3.4613461    2.8904127
C    10.2116342   -4.2446682    3.7171630
C     8.7804475   -4.1426268    3.7080949
C     8.1511516   -3.2606906    2.8715358
C    11.3700891    1.7898098   -2.3624946
C    10.7602625    2.6947693   -3.2262210
C     9.3108688    2.7973396   -3.2363403
C     8.5680278    1.9865787   -2.3830950
C    11.5153048    3.5398966   -4.1117953
C    10.8860628    4.4226838   -4.9474970
C     9.4548656    4.5245638   -4.9567252
C     8.6956359    3.7405932   -4.1306278
C    12.7578093   -0.0638644   -0.5984214
C    13.4349831   -0.8503651   -1.5488338
C    14.8259556   -0.9385711   -1.5443733
C    15.5806312   -0.2564208   -0.5773041
C    14.9112980    0.5385402    0.3666680
C    13.5180688    0.6327392    0.3561616
C    17.0785505   -0.3846921   -0.6365955
O    17.6673097   -0.7695249   -1.6122039
C     2.5874317    0.6573953   -0.6100928
O     1.9077401    0.3184653   -1.7299829
O     1.9978077    1.0419071    0.3651143
O    17.7591639   -0.0462790    0.4828814
H     8.1948102   -4.7780197    4.3775800
H     7.0603240   -3.1822676    2.8630847
H    12.0616499   -3.5389388    2.8962076
H     7.2069976   -1.4485193    1.1160803
H    12.1858672   -1.7983350    1.1503325
H     7.4804830    2.0759207   -2.3922093
H    12.4593592    1.7262010   -2.3578613
H     7.6048164    3.8183214   -4.1362850
H    11.4717613    5.0590357   -5.6160172
H    12.6061147    3.4612115   -4.1036078
H    12.8579698   -1.3946588   -2.3006416
H    15.3556678   -1.5374622   -2.2880624
H    15.4683744    1.1243209    1.1048476
H    13.0104905    1.2622483    1.0911738
H     6.8062973    1.6702145    1.0565569
H     4.3085134    1.8113883    1.0423726
H     4.1997070   -0.8506453   -2.3504706
H    10.6925211   -4.9568736    4.3927883
H     8.9739977    5.2370766   -5.6320400
H     6.6576667   -0.9869808   -2.3352165
H    17.1492475    0.1125765    1.2166501
H     2.5182232    0.1599556   -2.4633566
