 10
Energy =
H     0.0000000    2.0772728    1.2601105 
N    -0.0000000   -0.0000000   -1.4038721 
N    -0.0000000    0.0000000    1.4038721 
C    -0.0000000    1.1342494   -0.7004575 
C    -0.0000000   -1.1342494   -0.7004575 
C    -0.0000000   -1.1342494    0.7004575 
C    -0.0000000    1.1342494    0.7004575 
H     0.0000000    2.0772728   -1.2601105 
H     0.0000000   -2.0772728   -1.2601105 
H     0.0000000   -2.0772728    1.2601105
